*SPEF "IEEE 1481-1999"
*DESIGN "aes"
*DATE "Sat May  7 12:48:25 2022"
*VENDOR "SYNOPSYS INC"
*PROGRAM "Synopsys Design Compiler cmos"
*VERSION "M-2016.12-SP3"
*DESIGN_FLOW "SYNTHESIS"
*DIVIDER /
*DELIMITER :
*BUS_DELIMITER []
*T_UNIT 1.0 NS
*C_UNIT 1.0 PF
*R_UNIT 1.0 KOHM
*L_UNIT 1.0 HENRY

*PORTS

clk I *L 0.000e+00 *S 0.000e+00 0.000e+00 
reset_n I *L 0.000e+00 *S 0.000e+00 0.000e+00 
cs I *L 0.000e+00 *S 0.000e+00 0.000e+00 
we I *L 0.000e+00 *S 0.000e+00 0.000e+00 
address\[7\] I *L 0.000e+00 *S 0.000e+00 0.000e+00 
address\[6\] I *L 0.000e+00 *S 0.000e+00 0.000e+00 
address\[5\] I *L 0.000e+00 *S 0.000e+00 0.000e+00 
address\[4\] I *L 0.000e+00 *S 0.000e+00 0.000e+00 
address\[3\] I *L 0.000e+00 *S 0.000e+00 0.000e+00 
address\[2\] I *L 0.000e+00 *S 0.000e+00 0.000e+00 
address\[1\] I *L 0.000e+00 *S 0.000e+00 0.000e+00 
address\[0\] I *L 0.000e+00 *S 0.000e+00 0.000e+00 
write_data\[31\] I *L 0.000e+00 *S 0.000e+00 0.000e+00 
write_data\[30\] I *L 0.000e+00 *S 0.000e+00 0.000e+00 
write_data\[29\] I *L 0.000e+00 *S 0.000e+00 0.000e+00 
write_data\[28\] I *L 0.000e+00 *S 0.000e+00 0.000e+00 
write_data\[27\] I *L 0.000e+00 *S 0.000e+00 0.000e+00 
write_data\[26\] I *L 0.000e+00 *S 0.000e+00 0.000e+00 
write_data\[25\] I *L 0.000e+00 *S 0.000e+00 0.000e+00 
write_data\[24\] I *L 0.000e+00 *S 0.000e+00 0.000e+00 
write_data\[23\] I *L 0.000e+00 *S 0.000e+00 0.000e+00 
write_data\[22\] I *L 0.000e+00 *S 0.000e+00 0.000e+00 
write_data\[21\] I *L 0.000e+00 *S 0.000e+00 0.000e+00 
write_data\[20\] I *L 0.000e+00 *S 0.000e+00 0.000e+00 
write_data\[19\] I *L 0.000e+00 *S 0.000e+00 0.000e+00 
write_data\[18\] I *L 0.000e+00 *S 0.000e+00 0.000e+00 
write_data\[17\] I *L 0.000e+00 *S 0.000e+00 0.000e+00 
write_data\[16\] I *L 0.000e+00 *S 0.000e+00 0.000e+00 
write_data\[15\] I *L 0.000e+00 *S 0.000e+00 0.000e+00 
write_data\[14\] I *L 0.000e+00 *S 0.000e+00 0.000e+00 
write_data\[13\] I *L 0.000e+00 *S 0.000e+00 0.000e+00 
write_data\[12\] I *L 0.000e+00 *S 0.000e+00 0.000e+00 
write_data\[11\] I *L 0.000e+00 *S 0.000e+00 0.000e+00 
write_data\[10\] I *L 0.000e+00 *S 0.000e+00 0.000e+00 
write_data\[9\] I *L 0.000e+00 *S 0.000e+00 0.000e+00 
write_data\[8\] I *L 0.000e+00 *S 0.000e+00 0.000e+00 
write_data\[7\] I *L 0.000e+00 *S 0.000e+00 0.000e+00 
write_data\[6\] I *L 0.000e+00 *S 0.000e+00 0.000e+00 
write_data\[5\] I *L 0.000e+00 *S 0.000e+00 0.000e+00 
write_data\[4\] I *L 0.000e+00 *S 0.000e+00 0.000e+00 
write_data\[3\] I *L 0.000e+00 *S 0.000e+00 0.000e+00 
write_data\[2\] I *L 0.000e+00 *S 0.000e+00 0.000e+00 
write_data\[1\] I *L 0.000e+00 *S 0.000e+00 0.000e+00 
write_data\[0\] I *L 0.000e+00 *S 0.000e+00 0.000e+00 
read_data\[31\] O *L 9.269e-03 *S 3.091e-02 3.687e-02 
read_data\[30\] O *L 9.269e-03 *S 3.091e-02 3.687e-02 
read_data\[29\] O *L 9.269e-03 *S 3.091e-02 3.687e-02 
read_data\[28\] O *L 9.269e-03 *S 3.091e-02 3.687e-02 
read_data\[27\] O *L 9.269e-03 *S 3.091e-02 3.687e-02 
read_data\[26\] O *L 9.269e-03 *S 3.091e-02 3.687e-02 
read_data\[25\] O *L 9.269e-03 *S 3.091e-02 3.687e-02 
read_data\[24\] O *L 9.269e-03 *S 3.091e-02 3.687e-02 
read_data\[23\] O *L 9.269e-03 *S 3.091e-02 3.687e-02 
read_data\[22\] O *L 9.269e-03 *S 3.091e-02 3.687e-02 
read_data\[21\] O *L 9.269e-03 *S 3.091e-02 3.687e-02 
read_data\[20\] O *L 9.269e-03 *S 3.091e-02 3.687e-02 
read_data\[19\] O *L 9.269e-03 *S 3.091e-02 3.687e-02 
read_data\[18\] O *L 9.269e-03 *S 3.091e-02 3.687e-02 
read_data\[17\] O *L 9.269e-03 *S 3.091e-02 3.687e-02 
read_data\[16\] O *L 9.269e-03 *S 3.091e-02 3.687e-02 
read_data\[15\] O *L 9.269e-03 *S 3.091e-02 3.687e-02 
read_data\[14\] O *L 9.269e-03 *S 3.091e-02 3.687e-02 
read_data\[13\] O *L 9.269e-03 *S 3.091e-02 3.687e-02 
read_data\[12\] O *L 9.269e-03 *S 3.091e-02 3.687e-02 
read_data\[11\] O *L 9.269e-03 *S 3.091e-02 3.687e-02 
read_data\[10\] O *L 9.269e-03 *S 3.091e-02 3.687e-02 
read_data\[9\] O *L 9.269e-03 *S 3.091e-02 3.687e-02 
read_data\[8\] O *L 9.269e-03 *S 3.091e-02 3.687e-02 
read_data\[7\] O *L 9.269e-03 *S 3.091e-02 3.687e-02 
read_data\[6\] O *L 9.269e-03 *S 3.091e-02 3.687e-02 
read_data\[5\] O *L 9.269e-03 *S 3.091e-02 3.687e-02 
read_data\[4\] O *L 9.269e-03 *S 3.091e-02 3.687e-02 
read_data\[3\] O *L 9.269e-03 *S 3.091e-02 3.687e-02 
read_data\[2\] O *L 9.269e-03 *S 3.091e-02 3.687e-02 
read_data\[1\] O *L 9.269e-03 *S 3.091e-02 3.687e-02 
read_data\[0\] O *L 9.269e-03 *S 3.091e-02 3.687e-02 

*R_NET clk 1.440e+00
*DRIVER clk
*CELL NULL
*C2_R1_C1 7.199e-01 6.715e-04 7.199e-01 
*LOADS
*RC core/enc_block/clk_gate_round_ctr_reg_reg/latch:CK 3.205e-08
*RC core/enc_block/clk_gate_block_w2_reg_reg/latch:CK 3.205e-08
*RC core/enc_block/clk_gate_block_w1_reg_reg/latch:CK 3.205e-08
*RC core/enc_block/clk_gate_block_w0_reg_reg/latch:CK 3.205e-08
*RC core/dec_block/clk_gate_round_ctr_reg_reg/latch:CK 3.205e-08
*RC core/dec_block/clk_gate_block_w2_reg_reg/latch:CK 3.205e-08
*RC core/dec_block/clk_gate_block_w1_reg_reg/latch:CK 3.205e-08
*RC core/dec_block/clk_gate_block_w0_reg_reg/latch:CK 3.205e-08
*RC core/keymem/clk_gate_prev_key0_reg_reg/latch:CK 3.205e-08
*RC core/keymem/clk_gate_rcon_reg_reg/latch:CK 3.205e-08
*RC core/keymem/clk_gate_key_mem_reg_0_/latch:CK 3.205e-08
*RC core/keymem/clk_gate_key_mem_reg_1_/latch:CK 3.205e-08
*RC core/keymem/clk_gate_key_mem_reg_2_/latch:CK 3.205e-08
*RC core/keymem/clk_gate_key_mem_reg_3_/latch:CK 3.205e-08
*RC core/keymem/clk_gate_key_mem_reg_4_/latch:CK 3.205e-08
*RC core/keymem/clk_gate_key_mem_reg_5_/latch:CK 3.205e-08
*RC core/keymem/clk_gate_key_mem_reg_6_/latch:CK 3.205e-08
*RC core/keymem/clk_gate_key_mem_reg_7_/latch:CK 3.205e-08
*RC core/keymem/clk_gate_key_mem_reg_8_/latch:CK 3.205e-08
*RC core/keymem/clk_gate_key_mem_reg_9_/latch:CK 3.205e-08
*RC core/keymem/clk_gate_key_mem_reg_10_/latch:CK 3.205e-08
*RC core/keymem/clk_gate_key_mem_reg_11_/latch:CK 3.205e-08
*RC core/keymem/clk_gate_key_mem_reg_12_/latch:CK 3.205e-08
*RC core/keymem/clk_gate_key_mem_reg_13_/latch:CK 3.205e-08
*RC core/keymem/clk_gate_key_mem_reg_14_/latch:CK 3.205e-08
*RC core/keymem/clk_gate_key_mem_ctrl_reg_reg/latch:CK 3.205e-08
*RC core/keymem/clk_gate_prev_key1_reg_reg/latch:CK 3.205e-08
*RC clk_gate_key_reg_reg_1_0/latch:CK 3.205e-08
*RC clk_gate_key_reg_reg_2_0/latch:CK 3.205e-08
*RC clk_gate_key_reg_reg_3_0/latch:CK 3.205e-08
*RC clk_gate_key_reg_reg_4_0/latch:CK 3.205e-08
*RC clk_gate_key_reg_reg_5_0/latch:CK 3.205e-08
*RC clk_gate_key_reg_reg_6_0/latch:CK 3.205e-08
*RC clk_gate_key_reg_reg_7_0/latch:CK 3.205e-08
*RC clk_gate_block_reg_reg_0_0/latch:CK 3.205e-08
*RC clk_gate_block_reg_reg_1_0/latch:CK 3.205e-08
*RC clk_gate_block_reg_reg_2_0/latch:CK 3.205e-08
*RC clk_gate_block_reg_reg_3_0/latch:CK 3.205e-08
*RC core/keymem/clk_gate_round_ctr_reg_reg/latch:CK 3.205e-08
*RC core/dec_block/clk_gate_block_w3_reg_reg/latch:CK 3.205e-08
*RC core/enc_block/clk_gate_block_w3_reg_reg/latch:CK 3.205e-08
*RC core/clk_gate_aes_core_ctrl_reg_reg/latch:CK 3.205e-08
*RC core/dec_block/clock_r_REG2578_S3:CK 2.587e-08
*RC core/dec_block/clock_r_REG2582_S4:CK 2.522e-08
*RC core/dec_block/clock_r_REG2584_S4:CK 2.522e-08
*RC core/dec_block/clock_r_REG2579_S4:CK 2.522e-08
*RC core/enc_block/clock_r_REG2567_S2:CK 2.582e-08
*RC core/enc_block/clock_r_REG2570_S4:CK 2.567e-08
*RC core/enc_block/clock_r_REG2568_S3:CK 2.522e-08
*RC core/enc_block/clock_r_REG2569_S4:CK 2.522e-08
*RC clk_gate_key_reg_reg_0_0/latch:CK 3.205e-08
*RC clock_r_REG2585_S1:CK 2.522e-08
*RC clock_r_REG3_S4:CK 2.522e-08
*RC clock_r_REG2961_S1:CK 2.582e-08
*RC clock_r_REG0_S1:CK 2.522e-08
*RC clock_r_REG2974_S1:CK 2.522e-08
*RC clock_r_REG238_S18:CK 2.522e-08
*RC clock_r_REG250_S18:CK 2.522e-08
*RC clock_r_REG298_S18:CK 2.522e-08
*RC clock_r_REG299_S33:CK 2.522e-08
*RC clock_r_REG341_S33:CK 2.522e-08
*RC clock_r_REG349_S25:CK 2.522e-08
*RC clock_r_REG265_S16:CK 2.522e-08
*RC clock_r_REG357_S17:CK 2.522e-08
*RC clock_r_REG294_S25:CK 2.522e-08
*RC clock_r_REG272_S12:CK 2.522e-08
*RC clock_r_REG335_S21:CK 2.522e-08
*RC clock_r_REG288_S24:CK 2.522e-08
*RC clock_r_REG245_S27:CK 2.522e-08
*RC clock_r_REG322_S32:CK 2.522e-08
*RC clock_r_REG323_S18:CK 2.522e-08
*RC clock_r_REG262_S32:CK 2.522e-08
*RC clock_r_REG234_S18:CK 2.522e-08
*RC clock_r_REG337_S37:CK 2.522e-08
*RC clock_r_REG317_S12:CK 2.522e-08
*RC clock_r_REG164_S15:CK 2.522e-08
*RC clock_r_REG279_S16:CK 2.522e-08
*RC clock_r_REG356_S18:CK 2.522e-08
*RC clock_r_REG221_S12:CK 2.522e-08
*RC clock_r_REG237_S13:CK 2.522e-08
*RC clock_r_REG321_S33:CK 2.522e-08
*RC clock_r_REG269_S13:CK 2.522e-08
*RC clock_r_REG258_S27:CK 2.522e-08
*RC clock_r_REG352_S22:CK 2.522e-08
*RC clock_r_REG293_S12:CK 2.522e-08
*RC clock_r_REG331_S12:CK 2.522e-08
*RC clock_r_REG340_S34:CK 2.522e-08
*RC clock_r_REG348_S26:CK 2.522e-08
*RC clock_r_REG179_S13:CK 2.522e-08
*RC clock_r_REG319_S24:CK 2.522e-08
*RC clock_r_REG304_S26:CK 2.522e-08
*RC clock_r_REG334_S22:CK 2.522e-08
*RC clock_r_REG306_S24:CK 2.522e-08
*RC clock_r_REG350_S24:CK 2.522e-08
*RC clock_r_REG295_S25:CK 2.522e-08
*RC clock_r_REG347_S27:CK 2.522e-08
*RC clock_r_REG346_S28:CK 2.522e-08
*RC clock_r_REG355_S19:CK 2.522e-08
*RC clock_r_REG365_S11:CK 2.522e-08
*RC clock_r_REG333_S20:CK 2.522e-08
*RC clock_r_REG364_S11:CK 2.522e-08
*RC clock_r_REG342_S32:CK 2.522e-08
*RC clock_r_REG327_S16:CK 2.522e-08
*RC clock_r_REG312_S18:CK 2.522e-08
*RC clock_r_REG329_S14:CK 2.522e-08
*RC clock_r_REG284_S12:CK 2.522e-08
*RC clock_r_REG318_S11:CK 2.522e-08
*RC clock_r_REG292_S24:CK 2.522e-08
*RC clock_r_REG255_S27:CK 2.522e-08
*RC clock_r_REG338_S36:CK 2.522e-08
*RC clock_r_REG214_S28:CK 2.522e-08
*RC clock_r_REG281_S32:CK 2.522e-08
*RC clock_r_REG330_S13:CK 2.522e-08
*RC clock_r_REG354_S20:CK 2.522e-08
*RC clock_r_REG303_S27:CK 2.522e-08
*RC clock_r_REG316_S15:CK 2.522e-08
*RC clock_r_REG358_S16:CK 2.522e-08
*RC clock_r_REG278_S18:CK 2.522e-08
*RC clock_r_REG241_S12:CK 2.522e-08
*RC clock_r_REG254_S13:CK 2.522e-08
*RC clock_r_REG257_S13:CK 2.522e-08
*RC clock_r_REG209_S13:CK 2.522e-08
*RC clock_r_REG285_S37:CK 2.522e-08
*RC clock_r_REG202_S13:CK 2.522e-08
*RC clock_r_REG283_S12:CK 2.522e-08
*RC clock_r_REG301_S12:CK 2.522e-08
*RC clock_r_REG229_S25:CK 2.522e-08
*RC clock_r_REG251_S25:CK 2.522e-08
*RC clock_r_REG291_S25:CK 2.522e-08
*RC clock_r_REG249_S24:CK 2.522e-08
*RC clock_r_REG310_S14:CK 2.522e-08
*RC clock_r_REG307_S22:CK 2.522e-08
*RC clock_r_REG325_S24:CK 2.522e-08
*RC clock_r_REG266_S24:CK 2.522e-08
*RC clock_r_REG244_S32:CK 2.522e-08
*RC clock_r_REG75_S7:CK 2.522e-08
*RC clock_r_REG240_S32:CK 2.522e-08
*RC clock_r_REG290_S26:CK 2.522e-08
*RC clock_r_REG256_S26:CK 2.522e-08
*RC clock_r_REG309_S16:CK 2.522e-08
*RC clock_r_REG276_S31:CK 2.522e-08
*RC clock_r_REG277_S32:CK 2.522e-08
*RC clock_r_REG353_S21:CK 2.522e-08
*RC clock_r_REG308_S15:CK 2.522e-08
*RC clock_r_REG362_S12:CK 2.522e-08
*RC clock_r_REG361_S13:CK 2.522e-08
*RC clock_r_REG345_S29:CK 2.522e-08
*RC clock_r_REG268_S11:CK 2.522e-08
*RC clock_r_REG332_S20:CK 2.522e-08
*RC clock_r_REG363_S11:CK 2.522e-08
*RC clock_r_REG248_S25:CK 2.522e-08
*RC clock_r_REG252_S28:CK 2.522e-08
*RC clock_r_REG326_S37:CK 2.522e-08
*RC clock_r_REG311_S24:CK 2.522e-08
*RC clock_r_REG313_S22:CK 2.522e-08
*RC clock_r_REG328_S15:CK 2.522e-08
*RC clock_r_REG287_S25:CK 2.522e-08
*RC clock_r_REG267_S26:CK 2.522e-08
*RC clock_r_REG344_S30:CK 2.522e-08
*RC clock_r_REG261_S31:CK 2.522e-08
*RC clock_r_REG5_S4:CK 2.522e-08
*RC clock_r_REG300_S13:CK 2.522e-08
*RC clock_r_REG324_S17:CK 2.522e-08
*RC clock_r_REG360_S14:CK 2.522e-08
*RC clock_r_REG359_S15:CK 2.522e-08
*RC clock_r_REG243_S12:CK 2.522e-08
*RC clock_r_REG253_S13:CK 2.522e-08
*RC clock_r_REG210_S13:CK 2.522e-08
*RC clock_r_REG302_S21:CK 2.522e-08
*RC clock_r_REG315_S16:CK 2.522e-08
*RC clock_r_REG289_S12:CK 2.522e-08
*RC clock_r_REG305_S25:CK 2.522e-08
*RC clock_r_REG339_S35:CK 2.522e-08
*RC clock_r_REG233_S25:CK 2.522e-08
*RC clock_r_REG336_S20:CK 2.522e-08
*RC clock_r_REG320_S22:CK 2.522e-08
*RC clock_r_REG351_S23:CK 2.522e-08
*RC clock_r_REG242_S32:CK 2.522e-08
*RC clock_r_REG286_S26:CK 2.522e-08
*RC clock_r_REG314_S12:CK 2.522e-08
*RC clock_r_REG343_S31:CK 2.522e-08
*RC clock_r_REG296_S18:CK 2.522e-08
*RC clock_r_REG297_S18:CK 2.522e-08
*RC clock_r_REG247_S18:CK 2.522e-08
*RC clock_r_REG235_S18:CK 2.522e-08
*RC core/clock_r_REG2977_S1:CK 2.545e-08
*RC core/clock_r_REG2976_S1:CK 2.545e-08
*RC core/clock_r_REG2978_S1:CK 2.522e-08
*RC core/clock_r_REG2975_S1:CK 2.545e-08
*RC core/clock_r_REG2583_S3:CK 2.545e-08
*END

*R_NET reset_n 1.658e-01
*DRIVER reset_n
*CELL NULL
*C2_R1_C1 8.288e-02 5.950e-05 8.288e-02 
*LOADS
*RC core/keymem/U1828:A 3.805e-08
*RC core/dec_block/U1387:A 3.805e-08
*RC core/enc_block/U1123:A 3.805e-08
*RC U164:A 3.805e-08
*RC U165:A 3.805e-08
*RC clock_r_REG2_S3:SN 2.971e-08
*RC U314:A 3.805e-08
*RC core/U160:A 3.805e-08
*RC core/U159:A 3.805e-08
*RC core/clock_r_REG2976_S1:SN 2.971e-08
*RC core/clock_r_REG1_S2:SN 2.971e-08
*RC core/clock_r_REG2975_S1:SN 2.971e-08
*RC core/clock_r_REG2583_S3:SN 2.971e-08
*RC core/clock_r_REG2571_S3:SN 2.971e-08
*RC core/clock_r_REG2977_S1:SN 2.971e-08
*RC core/clock_r_REG2566_S3:SN 2.971e-08
*RC core/U203:A 3.805e-08
*END

*R_NET cs 1.612e-02
*DRIVER cs
*CELL NULL
*C2_R1_C1 8.059e-03 5.667e-06 8.059e-03 
*LOADS
*RC U201:B 1.820e-08
*RC U313:A 2.747e-08
*END

*R_NET we 2.081e-02
*DRIVER we
*CELL NULL
*C2_R1_C1 1.041e-02 8.500e-06 1.041e-02 
*LOADS
*RC U189:B 2.047e-08
*RC U195:B 2.047e-08
*RC U201:A 1.802e-08
*END

*R_NET address\[7\] 3.235e-02
*DRIVER address\[7\]
*CELL NULL
*C2_R1_C1 1.617e-02 1.417e-05 1.617e-02 
*LOADS
*RC U203:A 1.930e-08
*RC U319:B 1.832e-08
*RC U320:A 1.826e-08
*RC U324:B 1.832e-08
*RC U325:A 1.746e-08
*END

*R_NET address\[6\] 3.227e-02
*DRIVER address\[6\]
*CELL NULL
*C2_R1_C1 1.613e-02 1.417e-05 1.613e-02 
*LOADS
*RC U203:B 1.892e-08
*RC U319:C 1.846e-08
*RC U320:B 1.798e-08
*RC U324:C 1.846e-08
*RC U325:B 1.761e-08
*END

*R_NET address\[5\] 3.818e-02
*DRIVER address\[5\]
*CELL NULL
*C2_R1_C1 1.909e-02 1.700e-05 1.909e-02 
*LOADS
*RC U203:C 1.912e-08
*RC U318:C0 1.707e-08
*RC U321:B0 1.705e-08
*RC U322:B0 1.921e-08
*RC U323:B0 1.705e-08
*RC U326:C0 1.868e-08
*END

*R_NET address\[4\] 3.131e-02
*DRIVER address\[4\]
*CELL NULL
*C2_R1_C1 1.566e-02 1.417e-05 1.566e-02 
*LOADS
*RC U279:A 1.864e-08
*RC U318:B0 1.717e-08
*RC U321:B1 1.707e-08
*RC U323:B1 1.707e-08
*RC U326:A0 1.877e-08
*END

*R_NET address\[3\] 5.683e-02
*DRIVER address\[3\]
*CELL NULL
*C2_R1_C1 2.841e-02 2.267e-05 2.841e-02 
*LOADS
*RC U191:B 2.047e-08
*RC U194:C 1.858e-08
*RC U197:A 2.747e-08
*RC U202:B 1.860e-08
*RC U206:B 2.047e-08
*RC U318:A0 1.801e-08
*RC U322:A0 1.889e-08
*RC U326:A1 1.850e-08
*END

*R_NET address\[2\] 5.655e-02
*DRIVER address\[2\]
*CELL NULL
*C2_R1_C1 2.828e-02 2.267e-05 2.828e-02 
*LOADS
*RC U193:A 2.106e-08
*RC U204:B 2.057e-08
*RC U213:B 2.057e-08
*RC U214:B 2.057e-08
*RC U277:B 2.057e-08
*RC U278:B 2.057e-08
*RC U318:A1 1.774e-08
*RC U322:A1 1.860e-08
*END

*R_NET address\[1\] 3.815e-02
*DRIVER address\[1\]
*CELL NULL
*C2_R1_C1 1.908e-02 1.417e-05 1.908e-02 
*LOADS
*RC U198:A 2.106e-08
*RC U200:C 1.853e-08
*RC U206:C 2.047e-08
*RC U275:B 2.057e-08
*RC U276:A 2.747e-08
*END

*R_NET address\[0\] 3.175e-02
*DRIVER address\[0\]
*CELL NULL
*C2_R1_C1 1.588e-02 1.133e-05 1.588e-02 
*LOADS
*RC U191:A 2.118e-08
*RC U198:B 2.075e-08
*RC U220:B 2.057e-08
*RC U310:A 2.747e-08
*END

*R_NET write_data\[31\] 1.727e-01
*DRIVER write_data\[31\]
*CELL NULL
*C2_R1_C1 8.637e-02 9.067e-05 8.637e-02 
*LOADS
*RC core/keymem/clock_r_REG2612_S1:D 1.088e-07
*RC core/clock_r_REG2611_S1:D 1.088e-07
*RC core/clock_r_REG2610_S1:D 1.088e-07
*RC core/clock_r_REG2609_S1:D 1.088e-07
*RC core/clock_r_REG2608_S1:D 1.088e-07
*RC core/keymem/clock_r_REG2607_S1:D 1.088e-07
*RC core/keymem/clock_r_REG2606_S1:D 1.088e-07
*RC core/keymem/clock_r_REG2605_S1:D 1.088e-07
*RC core/keymem/clock_r_REG2604_S1:D 1.088e-07
*RC core/keymem/clock_r_REG2603_S1:D 1.088e-07
*RC core/keymem/clock_r_REG2602_S1:D 1.088e-07
*RC core/keymem/clock_r_REG2601_S1:D 1.088e-07
*END

*R_NET write_data\[30\] 1.727e-01
*DRIVER write_data\[30\]
*CELL NULL
*C2_R1_C1 8.637e-02 9.067e-05 8.637e-02 
*LOADS
*RC core/keymem/clock_r_REG2624_S1:D 1.088e-07
*RC core/clock_r_REG2623_S1:D 1.088e-07
*RC core/clock_r_REG2622_S1:D 1.088e-07
*RC core/clock_r_REG2621_S1:D 1.088e-07
*RC core/clock_r_REG2620_S1:D 1.088e-07
*RC core/keymem/clock_r_REG2619_S1:D 1.088e-07
*RC core/keymem/clock_r_REG2618_S1:D 1.088e-07
*RC core/keymem/clock_r_REG2617_S1:D 1.088e-07
*RC core/keymem/clock_r_REG2616_S1:D 1.088e-07
*RC core/keymem/clock_r_REG2615_S1:D 1.088e-07
*RC core/keymem/clock_r_REG2614_S1:D 1.088e-07
*RC core/keymem/clock_r_REG2613_S1:D 1.088e-07
*END

*R_NET write_data\[29\] 1.727e-01
*DRIVER write_data\[29\]
*CELL NULL
*C2_R1_C1 8.637e-02 9.067e-05 8.637e-02 
*LOADS
*RC core/keymem/clock_r_REG2636_S1:D 1.088e-07
*RC core/clock_r_REG2635_S1:D 1.088e-07
*RC core/clock_r_REG2634_S1:D 1.088e-07
*RC core/clock_r_REG2633_S1:D 1.088e-07
*RC core/clock_r_REG2632_S1:D 1.088e-07
*RC core/keymem/clock_r_REG2631_S1:D 1.088e-07
*RC core/keymem/clock_r_REG2630_S1:D 1.088e-07
*RC core/keymem/clock_r_REG2629_S1:D 1.088e-07
*RC core/keymem/clock_r_REG2628_S1:D 1.088e-07
*RC core/keymem/clock_r_REG2627_S1:D 1.088e-07
*RC core/keymem/clock_r_REG2626_S1:D 1.088e-07
*RC core/keymem/clock_r_REG2625_S1:D 1.088e-07
*END

*R_NET write_data\[28\] 1.727e-01
*DRIVER write_data\[28\]
*CELL NULL
*C2_R1_C1 8.637e-02 9.067e-05 8.637e-02 
*LOADS
*RC core/keymem/clock_r_REG2648_S1:D 1.088e-07
*RC core/clock_r_REG2647_S1:D 1.088e-07
*RC core/clock_r_REG2646_S1:D 1.088e-07
*RC core/clock_r_REG2645_S1:D 1.088e-07
*RC core/clock_r_REG2644_S1:D 1.088e-07
*RC core/keymem/clock_r_REG2643_S1:D 1.088e-07
*RC core/keymem/clock_r_REG2642_S1:D 1.088e-07
*RC core/keymem/clock_r_REG2641_S1:D 1.088e-07
*RC core/keymem/clock_r_REG2640_S1:D 1.088e-07
*RC core/keymem/clock_r_REG2639_S1:D 1.088e-07
*RC core/keymem/clock_r_REG2638_S1:D 1.088e-07
*RC core/keymem/clock_r_REG2637_S1:D 1.088e-07
*END

*R_NET write_data\[27\] 1.727e-01
*DRIVER write_data\[27\]
*CELL NULL
*C2_R1_C1 8.637e-02 9.067e-05 8.637e-02 
*LOADS
*RC core/keymem/clock_r_REG2660_S1:D 1.088e-07
*RC core/clock_r_REG2659_S1:D 1.088e-07
*RC core/clock_r_REG2658_S1:D 1.088e-07
*RC core/clock_r_REG2657_S1:D 1.088e-07
*RC core/clock_r_REG2656_S1:D 1.088e-07
*RC core/keymem/clock_r_REG2655_S1:D 1.088e-07
*RC core/keymem/clock_r_REG2654_S1:D 1.088e-07
*RC core/keymem/clock_r_REG2653_S1:D 1.088e-07
*RC core/keymem/clock_r_REG2652_S1:D 1.088e-07
*RC core/keymem/clock_r_REG2651_S1:D 1.088e-07
*RC core/keymem/clock_r_REG2650_S1:D 1.088e-07
*RC core/keymem/clock_r_REG2649_S1:D 1.088e-07
*END

*R_NET write_data\[26\] 1.727e-01
*DRIVER write_data\[26\]
*CELL NULL
*C2_R1_C1 8.637e-02 9.067e-05 8.637e-02 
*LOADS
*RC core/keymem/clock_r_REG2672_S1:D 1.088e-07
*RC core/clock_r_REG2671_S1:D 1.088e-07
*RC core/clock_r_REG2670_S1:D 1.088e-07
*RC core/clock_r_REG2669_S1:D 1.088e-07
*RC core/clock_r_REG2668_S1:D 1.088e-07
*RC core/keymem/clock_r_REG2667_S1:D 1.088e-07
*RC core/keymem/clock_r_REG2666_S1:D 1.088e-07
*RC core/keymem/clock_r_REG2665_S1:D 1.088e-07
*RC core/keymem/clock_r_REG2664_S1:D 1.088e-07
*RC core/keymem/clock_r_REG2663_S1:D 1.088e-07
*RC core/keymem/clock_r_REG2662_S1:D 1.088e-07
*RC core/keymem/clock_r_REG2661_S1:D 1.088e-07
*END

*R_NET write_data\[25\] 1.727e-01
*DRIVER write_data\[25\]
*CELL NULL
*C2_R1_C1 8.637e-02 9.067e-05 8.637e-02 
*LOADS
*RC core/keymem/clock_r_REG2684_S1:D 1.088e-07
*RC core/clock_r_REG2683_S1:D 1.088e-07
*RC core/clock_r_REG2682_S1:D 1.088e-07
*RC core/clock_r_REG2681_S1:D 1.088e-07
*RC core/clock_r_REG2680_S1:D 1.088e-07
*RC core/keymem/clock_r_REG2679_S1:D 1.088e-07
*RC core/keymem/clock_r_REG2678_S1:D 1.088e-07
*RC core/keymem/clock_r_REG2677_S1:D 1.088e-07
*RC core/keymem/clock_r_REG2676_S1:D 1.088e-07
*RC core/keymem/clock_r_REG2675_S1:D 1.088e-07
*RC core/keymem/clock_r_REG2674_S1:D 1.088e-07
*RC core/keymem/clock_r_REG2673_S1:D 1.088e-07
*END

*R_NET write_data\[24\] 1.727e-01
*DRIVER write_data\[24\]
*CELL NULL
*C2_R1_C1 8.637e-02 9.067e-05 8.637e-02 
*LOADS
*RC core/keymem/clock_r_REG2696_S1:D 1.088e-07
*RC core/clock_r_REG2695_S1:D 1.088e-07
*RC core/clock_r_REG2694_S1:D 1.088e-07
*RC core/clock_r_REG2693_S1:D 1.088e-07
*RC core/clock_r_REG2692_S1:D 1.088e-07
*RC core/keymem/clock_r_REG2691_S1:D 1.088e-07
*RC core/keymem/clock_r_REG2690_S1:D 1.088e-07
*RC core/keymem/clock_r_REG2689_S1:D 1.088e-07
*RC core/keymem/clock_r_REG2688_S1:D 1.088e-07
*RC core/keymem/clock_r_REG2687_S1:D 1.088e-07
*RC core/keymem/clock_r_REG2686_S1:D 1.088e-07
*RC core/keymem/clock_r_REG2685_S1:D 1.088e-07
*END

*R_NET write_data\[23\] 1.727e-01
*DRIVER write_data\[23\]
*CELL NULL
*C2_R1_C1 8.637e-02 9.067e-05 8.637e-02 
*LOADS
*RC core/keymem/clock_r_REG2708_S1:D 1.088e-07
*RC core/clock_r_REG2707_S1:D 1.088e-07
*RC core/clock_r_REG2706_S1:D 1.088e-07
*RC core/clock_r_REG2705_S1:D 1.088e-07
*RC core/clock_r_REG2704_S1:D 1.088e-07
*RC core/keymem/clock_r_REG2703_S1:D 1.088e-07
*RC core/keymem/clock_r_REG2702_S1:D 1.088e-07
*RC core/keymem/clock_r_REG2701_S1:D 1.088e-07
*RC core/keymem/clock_r_REG2700_S1:D 1.088e-07
*RC core/keymem/clock_r_REG2699_S1:D 1.088e-07
*RC core/keymem/clock_r_REG2698_S1:D 1.088e-07
*RC core/keymem/clock_r_REG2697_S1:D 1.088e-07
*END

*R_NET write_data\[22\] 1.727e-01
*DRIVER write_data\[22\]
*CELL NULL
*C2_R1_C1 8.637e-02 9.067e-05 8.637e-02 
*LOADS
*RC core/keymem/clock_r_REG2720_S1:D 1.088e-07
*RC core/clock_r_REG2719_S1:D 1.088e-07
*RC core/clock_r_REG2718_S1:D 1.088e-07
*RC core/clock_r_REG2717_S1:D 1.088e-07
*RC core/clock_r_REG2716_S1:D 1.088e-07
*RC core/keymem/clock_r_REG2715_S1:D 1.088e-07
*RC core/keymem/clock_r_REG2714_S1:D 1.088e-07
*RC core/keymem/clock_r_REG2713_S1:D 1.088e-07
*RC core/keymem/clock_r_REG2712_S1:D 1.088e-07
*RC core/keymem/clock_r_REG2711_S1:D 1.088e-07
*RC core/keymem/clock_r_REG2710_S1:D 1.088e-07
*RC core/keymem/clock_r_REG2709_S1:D 1.088e-07
*END

*R_NET write_data\[21\] 1.727e-01
*DRIVER write_data\[21\]
*CELL NULL
*C2_R1_C1 8.637e-02 9.067e-05 8.637e-02 
*LOADS
*RC core/keymem/clock_r_REG2732_S1:D 1.088e-07
*RC core/clock_r_REG2731_S1:D 1.088e-07
*RC core/clock_r_REG2730_S1:D 1.088e-07
*RC core/clock_r_REG2729_S1:D 1.088e-07
*RC core/clock_r_REG2728_S1:D 1.088e-07
*RC core/keymem/clock_r_REG2727_S1:D 1.088e-07
*RC core/keymem/clock_r_REG2726_S1:D 1.088e-07
*RC core/keymem/clock_r_REG2725_S1:D 1.088e-07
*RC core/keymem/clock_r_REG2724_S1:D 1.088e-07
*RC core/keymem/clock_r_REG2723_S1:D 1.088e-07
*RC core/keymem/clock_r_REG2722_S1:D 1.088e-07
*RC core/keymem/clock_r_REG2721_S1:D 1.088e-07
*END

*R_NET write_data\[20\] 1.727e-01
*DRIVER write_data\[20\]
*CELL NULL
*C2_R1_C1 8.637e-02 9.067e-05 8.637e-02 
*LOADS
*RC core/keymem/clock_r_REG2744_S1:D 1.088e-07
*RC core/clock_r_REG2743_S1:D 1.088e-07
*RC core/clock_r_REG2742_S1:D 1.088e-07
*RC core/clock_r_REG2741_S1:D 1.088e-07
*RC core/clock_r_REG2740_S1:D 1.088e-07
*RC core/keymem/clock_r_REG2739_S1:D 1.088e-07
*RC core/keymem/clock_r_REG2738_S1:D 1.088e-07
*RC core/keymem/clock_r_REG2737_S1:D 1.088e-07
*RC core/keymem/clock_r_REG2736_S1:D 1.088e-07
*RC core/keymem/clock_r_REG2735_S1:D 1.088e-07
*RC core/keymem/clock_r_REG2734_S1:D 1.088e-07
*RC core/keymem/clock_r_REG2733_S1:D 1.088e-07
*END

*R_NET write_data\[19\] 1.727e-01
*DRIVER write_data\[19\]
*CELL NULL
*C2_R1_C1 8.637e-02 9.067e-05 8.637e-02 
*LOADS
*RC core/keymem/clock_r_REG2756_S1:D 1.088e-07
*RC core/clock_r_REG2755_S1:D 1.088e-07
*RC core/clock_r_REG2754_S1:D 1.088e-07
*RC core/clock_r_REG2753_S1:D 1.088e-07
*RC core/clock_r_REG2752_S1:D 1.088e-07
*RC core/keymem/clock_r_REG2751_S1:D 1.088e-07
*RC core/keymem/clock_r_REG2750_S1:D 1.088e-07
*RC core/keymem/clock_r_REG2749_S1:D 1.088e-07
*RC core/keymem/clock_r_REG2748_S1:D 1.088e-07
*RC core/keymem/clock_r_REG2747_S1:D 1.088e-07
*RC core/keymem/clock_r_REG2746_S1:D 1.088e-07
*RC core/keymem/clock_r_REG2745_S1:D 1.088e-07
*END

*R_NET write_data\[18\] 1.727e-01
*DRIVER write_data\[18\]
*CELL NULL
*C2_R1_C1 8.637e-02 9.067e-05 8.637e-02 
*LOADS
*RC core/keymem/clock_r_REG2768_S1:D 1.088e-07
*RC core/clock_r_REG2767_S1:D 1.088e-07
*RC core/clock_r_REG2766_S1:D 1.088e-07
*RC core/clock_r_REG2765_S1:D 1.088e-07
*RC core/clock_r_REG2764_S1:D 1.088e-07
*RC core/keymem/clock_r_REG2763_S1:D 1.088e-07
*RC core/keymem/clock_r_REG2762_S1:D 1.088e-07
*RC core/keymem/clock_r_REG2761_S1:D 1.088e-07
*RC core/keymem/clock_r_REG2760_S1:D 1.088e-07
*RC core/keymem/clock_r_REG2759_S1:D 1.088e-07
*RC core/keymem/clock_r_REG2758_S1:D 1.088e-07
*RC core/keymem/clock_r_REG2757_S1:D 1.088e-07
*END

*R_NET write_data\[17\] 1.727e-01
*DRIVER write_data\[17\]
*CELL NULL
*C2_R1_C1 8.637e-02 9.067e-05 8.637e-02 
*LOADS
*RC core/keymem/clock_r_REG2780_S1:D 1.088e-07
*RC core/clock_r_REG2779_S1:D 1.088e-07
*RC core/clock_r_REG2778_S1:D 1.088e-07
*RC core/clock_r_REG2777_S1:D 1.088e-07
*RC core/clock_r_REG2776_S1:D 1.088e-07
*RC core/keymem/clock_r_REG2775_S1:D 1.088e-07
*RC core/keymem/clock_r_REG2774_S1:D 1.088e-07
*RC core/keymem/clock_r_REG2773_S1:D 1.088e-07
*RC core/keymem/clock_r_REG2772_S1:D 1.088e-07
*RC core/keymem/clock_r_REG2771_S1:D 1.088e-07
*RC core/keymem/clock_r_REG2770_S1:D 1.088e-07
*RC core/keymem/clock_r_REG2769_S1:D 1.088e-07
*END

*R_NET write_data\[16\] 1.727e-01
*DRIVER write_data\[16\]
*CELL NULL
*C2_R1_C1 8.637e-02 9.067e-05 8.637e-02 
*LOADS
*RC core/keymem/clock_r_REG2792_S1:D 1.088e-07
*RC core/clock_r_REG2791_S1:D 1.088e-07
*RC core/clock_r_REG2790_S1:D 1.088e-07
*RC core/clock_r_REG2789_S1:D 1.088e-07
*RC core/clock_r_REG2788_S1:D 1.088e-07
*RC core/keymem/clock_r_REG2787_S1:D 1.088e-07
*RC core/keymem/clock_r_REG2786_S1:D 1.088e-07
*RC core/keymem/clock_r_REG2785_S1:D 1.088e-07
*RC core/keymem/clock_r_REG2784_S1:D 1.088e-07
*RC core/keymem/clock_r_REG2783_S1:D 1.088e-07
*RC core/keymem/clock_r_REG2782_S1:D 1.088e-07
*RC core/keymem/clock_r_REG2781_S1:D 1.088e-07
*END

*R_NET write_data\[15\] 1.727e-01
*DRIVER write_data\[15\]
*CELL NULL
*C2_R1_C1 8.637e-02 9.067e-05 8.637e-02 
*LOADS
*RC core/keymem/clock_r_REG2804_S1:D 1.088e-07
*RC core/clock_r_REG2803_S1:D 1.088e-07
*RC core/clock_r_REG2802_S1:D 1.088e-07
*RC core/clock_r_REG2801_S1:D 1.088e-07
*RC core/clock_r_REG2800_S1:D 1.088e-07
*RC core/keymem/clock_r_REG2799_S1:D 1.088e-07
*RC core/keymem/clock_r_REG2798_S1:D 1.088e-07
*RC core/keymem/clock_r_REG2797_S1:D 1.088e-07
*RC core/keymem/clock_r_REG2796_S1:D 1.088e-07
*RC core/keymem/clock_r_REG2795_S1:D 1.088e-07
*RC core/keymem/clock_r_REG2794_S1:D 1.088e-07
*RC core/keymem/clock_r_REG2793_S1:D 1.088e-07
*END

*R_NET write_data\[14\] 1.727e-01
*DRIVER write_data\[14\]
*CELL NULL
*C2_R1_C1 8.637e-02 9.067e-05 8.637e-02 
*LOADS
*RC core/keymem/clock_r_REG2816_S1:D 1.088e-07
*RC core/clock_r_REG2815_S1:D 1.088e-07
*RC core/clock_r_REG2814_S1:D 1.088e-07
*RC core/clock_r_REG2813_S1:D 1.088e-07
*RC core/clock_r_REG2812_S1:D 1.088e-07
*RC core/keymem/clock_r_REG2811_S1:D 1.088e-07
*RC core/keymem/clock_r_REG2810_S1:D 1.088e-07
*RC core/keymem/clock_r_REG2809_S1:D 1.088e-07
*RC core/keymem/clock_r_REG2808_S1:D 1.088e-07
*RC core/keymem/clock_r_REG2807_S1:D 1.088e-07
*RC core/keymem/clock_r_REG2806_S1:D 1.088e-07
*RC core/keymem/clock_r_REG2805_S1:D 1.088e-07
*END

*R_NET write_data\[13\] 1.727e-01
*DRIVER write_data\[13\]
*CELL NULL
*C2_R1_C1 8.637e-02 9.067e-05 8.637e-02 
*LOADS
*RC core/keymem/clock_r_REG2828_S1:D 1.088e-07
*RC core/clock_r_REG2827_S1:D 1.088e-07
*RC core/clock_r_REG2826_S1:D 1.088e-07
*RC core/clock_r_REG2825_S1:D 1.088e-07
*RC core/clock_r_REG2824_S1:D 1.088e-07
*RC core/keymem/clock_r_REG2823_S1:D 1.088e-07
*RC core/keymem/clock_r_REG2822_S1:D 1.088e-07
*RC core/keymem/clock_r_REG2821_S1:D 1.088e-07
*RC core/keymem/clock_r_REG2820_S1:D 1.088e-07
*RC core/keymem/clock_r_REG2819_S1:D 1.088e-07
*RC core/keymem/clock_r_REG2818_S1:D 1.088e-07
*RC core/keymem/clock_r_REG2817_S1:D 1.088e-07
*END

*R_NET write_data\[12\] 1.727e-01
*DRIVER write_data\[12\]
*CELL NULL
*C2_R1_C1 8.637e-02 9.067e-05 8.637e-02 
*LOADS
*RC core/keymem/clock_r_REG2840_S1:D 1.088e-07
*RC core/clock_r_REG2839_S1:D 1.088e-07
*RC core/clock_r_REG2838_S1:D 1.088e-07
*RC core/clock_r_REG2837_S1:D 1.088e-07
*RC core/clock_r_REG2836_S1:D 1.088e-07
*RC core/keymem/clock_r_REG2835_S1:D 1.088e-07
*RC core/keymem/clock_r_REG2834_S1:D 1.088e-07
*RC core/keymem/clock_r_REG2833_S1:D 1.088e-07
*RC core/keymem/clock_r_REG2832_S1:D 1.088e-07
*RC core/keymem/clock_r_REG2831_S1:D 1.088e-07
*RC core/keymem/clock_r_REG2830_S1:D 1.088e-07
*RC core/keymem/clock_r_REG2829_S1:D 1.088e-07
*END

*R_NET write_data\[11\] 1.727e-01
*DRIVER write_data\[11\]
*CELL NULL
*C2_R1_C1 8.637e-02 9.067e-05 8.637e-02 
*LOADS
*RC core/keymem/clock_r_REG2852_S1:D 1.088e-07
*RC core/clock_r_REG2851_S1:D 1.088e-07
*RC core/clock_r_REG2850_S1:D 1.088e-07
*RC core/clock_r_REG2849_S1:D 1.088e-07
*RC core/clock_r_REG2848_S1:D 1.088e-07
*RC core/keymem/clock_r_REG2847_S1:D 1.088e-07
*RC core/keymem/clock_r_REG2846_S1:D 1.088e-07
*RC core/keymem/clock_r_REG2845_S1:D 1.088e-07
*RC core/keymem/clock_r_REG2844_S1:D 1.088e-07
*RC core/keymem/clock_r_REG2843_S1:D 1.088e-07
*RC core/keymem/clock_r_REG2842_S1:D 1.088e-07
*RC core/keymem/clock_r_REG2841_S1:D 1.088e-07
*END

*R_NET write_data\[10\] 1.727e-01
*DRIVER write_data\[10\]
*CELL NULL
*C2_R1_C1 8.637e-02 9.067e-05 8.637e-02 
*LOADS
*RC core/keymem/clock_r_REG2864_S1:D 1.088e-07
*RC core/clock_r_REG2863_S1:D 1.088e-07
*RC core/clock_r_REG2862_S1:D 1.088e-07
*RC core/clock_r_REG2861_S1:D 1.088e-07
*RC core/clock_r_REG2860_S1:D 1.088e-07
*RC core/keymem/clock_r_REG2859_S1:D 1.088e-07
*RC core/keymem/clock_r_REG2858_S1:D 1.088e-07
*RC core/keymem/clock_r_REG2857_S1:D 1.088e-07
*RC core/keymem/clock_r_REG2856_S1:D 1.088e-07
*RC core/keymem/clock_r_REG2855_S1:D 1.088e-07
*RC core/keymem/clock_r_REG2854_S1:D 1.088e-07
*RC core/keymem/clock_r_REG2853_S1:D 1.088e-07
*END

*R_NET write_data\[9\] 1.727e-01
*DRIVER write_data\[9\]
*CELL NULL
*C2_R1_C1 8.637e-02 9.067e-05 8.637e-02 
*LOADS
*RC core/keymem/clock_r_REG2876_S1:D 1.088e-07