*SPEF "IEEE 1481-1999"
*DESIGN "arbiter"
*DATE "Fri May  6 13:58:06 2022"
*VENDOR "SYNOPSYS INC"
*PROGRAM "Synopsys Design Compiler cmos"
*VERSION "M-2016.12-SP3"
*DESIGN_FLOW "SYNTHESIS"
*DIVIDER /
*DELIMITER :
*BUS_DELIMITER []
*T_UNIT 1.0 NS
*C_UNIT 1.0 PF
*R_UNIT 1.0 KOHM
*L_UNIT 1.0 HENRY

*PORTS

clk I *L 0.000e+00 *S 0.000e+00 0.000e+00 
rstn I *L 0.000e+00 *S 0.000e+00 0.000e+00 
r\[1\] I *L 0.000e+00 *S 0.000e+00 0.000e+00 
r\[2\] I *L 0.000e+00 *S 0.000e+00 0.000e+00 
r\[3\] I *L 0.000e+00 *S 0.000e+00 0.000e+00 
g\[1\] O *L 9.269e-03 *S 6.529e-02 5.718e-02 
g\[2\] O *L 9.269e-03 *S 6.529e-02 5.718e-02 
g\[3\] O *L 9.269e-03 *S 4.661e-02 2.864e-02 

*R_NET clk 1.180e-02
*DRIVER clk
*CELL NULL
*C2_R1_C1 5.901e-03 5.667e-06 5.901e-03 
*LOADS
*RC y_reg_1_0:CK 1.672e-08
*RC y_reg_2_0:CK 1.672e-08
*END

*R_NET rstn 9.696e-03
*DRIVER rstn
*CELL NULL
*C2_R1_C1 4.848e-03 2.833e-06 4.848e-03 
*LOADS
*RC U31:A 2.747e-08
*END

*R_NET r\[1\] 1.713e-02
*DRIVER r\[1\]
*CELL NULL
*C2_R1_C1 8.564e-03 5.667e-06 8.564e-03 
*LOADS
*RC U25:A 2.106e-08
*RC U32:A 2.747e-08
*END

*R_NET r\[2\] 2.107e-02
*DRIVER r\[2\]
*CELL NULL
*C2_R1_C1 1.054e-02 8.500e-06 1.054e-02 
*LOADS
*RC U27:A0 2.060e-08
*RC U30:B0 1.804e-08
*RC U28:A 2.106e-08
*END

*R_NET r\[3\] 2.727e-02
*DRIVER r\[3\]
*CELL NULL
*C2_R1_C1 1.364e-02 1.133e-05 1.364e-02 
*LOADS
*RC U27:A1N 1.738e-08
*RC U26:B1 2.089e-08
*RC U30:A1 1.810e-08
*RC U29:B1 2.089e-08
*END

*R_NET y\[2\] 1.886e-02
*DRIVER U34:Y
*CELL INVX2BA12TR
*C2_R1_C1 9.430e-03 5.667e-06 9.430e-03 
*LOADS
*RC U18:A 3.400e-08
*RC U23:B 1.944e-08
*END

*R_NET y\[1\] 1.886e-02
*DRIVER U33:Y
*CELL INVX2BA12TR
*C2_R1_C1 9.430e-03 5.667e-06 9.430e-03 
*LOADS
*RC U19:A 3.400e-08
*RC U24:B 1.944e-08
*END

*R_NET N46 6.606e-03
*DRIVER U21:Y
*CELL AOI21X1A12TR
*C2_R1_C1 3.303e-03 2.833e-06 3.303e-03 
*LOADS
*RC y_reg_1_0:D 1.872e-08
*END

*R_NET N47 6.606e-03
*DRIVER U22:Y
*CELL AOI21X1A12TR
*C2_R1_C1 3.303e-03 2.833e-06 3.303e-03 
*LOADS
*RC y_reg_2_0:D 1.872e-08
*END

*R_NET N54 2.907e-02
*DRIVER U20:Y
*CELL NOR2X2A12TR
*C2_R1_C1 1.454e-02 8.500e-06 1.454e-02 
*LOADS
*RC U26:B0 2.097e-08
*RC U29:B0 2.097e-08
*RC g\[3\] 4.043e-08
*END

*R_NET n5 7.328e-03
*DRIVER U29:Y
*CELL AOI32X1A12TR
*C2_R1_C1 3.664e-03 2.833e-06 3.664e-03 
*LOADS
*RC U22:A0 2.076e-08
*END

*R_NET n6 7.244e-03
*DRIVER U28:Y
*CELL NAND2X1A12TR
*C2_R1_C1 3.622e-03 2.833e-06 3.622e-03 
*LOADS
*RC U22:A1 2.052e-08
*END

*R_NET n7 7.252e-03
*DRIVER U30:Y
*CELL AO21X1A12TR
*C2_R1_C1 3.626e-03 2.833e-06 3.626e-03 
*LOADS
*RC U29:A2 2.055e-08
*END

*R_NET n8 7.328e-03
*DRIVER U26:Y
*CELL AOI32X1A12TR
*C2_R1_C1 3.664e-03 2.833e-06 3.664e-03 
*LOADS
*RC U21:A0 2.076e-08
*END

*R_NET n9 7.244e-03
*DRIVER U25:Y
*CELL NAND2X1A12TR
*C2_R1_C1 3.622e-03 2.833e-06 3.622e-03 
*LOADS
*RC U21:A1 2.052e-08
*END

*R_NET n10 7.252e-03
*DRIVER U27:Y
*CELL OAI2XB1X1A12TR
*C2_R1_C1 3.626e-03 2.833e-06 3.626e-03 
*LOADS
*RC U26:A2 2.055e-08
*END

*R_NET g_2_0 2.159e-02
*DRIVER U24:Y
*CELL NOR2X1MA12TR
*C2_R1_C1 1.080e-02 5.667e-06 1.080e-02 
*LOADS
*RC U28:B 2.075e-08
*RC g\[2\] 4.043e-08
*END

*R_NET g_1_0 2.159e-02
*DRIVER U23:Y
*CELL NOR2X1MA12TR
*C2_R1_C1 1.080e-02 5.667e-06 1.080e-02 
*LOADS
*RC U25:B 2.075e-08
*RC g\[1\] 4.043e-08
*END

*R_NET n13 9.362e-03
*DRIVER y_reg_1_0:QN
*CELL DFFQNX1A12TR
*C2_R1_C1 4.681e-03 2.833e-06 4.681e-03 
*LOADS
*RC U33:A 2.653e-08
*END

*R_NET n14 9.362e-03
*DRIVER y_reg_2_0:QN
*CELL DFFQNX1A12TR
*C2_R1_C1 4.681e-03 2.833e-06 4.681e-03 
*LOADS
*RC U34:A 2.653e-08
*END

*R_NET n15 3.020e-02
*DRIVER U18:Y
*CELL INVX3A12TR
*C2_R1_C1 1.510e-02 1.133e-05 1.510e-02 
*LOADS
*RC U20:B 2.698e-08
*RC U24:A 1.993e-08
*RC U26:A1 2.042e-08
*RC U30:A0 1.824e-08
*END

*R_NET n16 3.129e-02
*DRIVER U19:Y
*CELL INVX3A12TR
*C2_R1_C1 1.564e-02 1.133e-05 1.564e-02 
*LOADS
*RC U20:A 2.751e-08
*RC U23:A 1.993e-08
*RC U26:A0 2.080e-08
*RC U29:A1 2.042e-08
*END

*R_NET n17 1.501e-02
*DRIVER U31:Y
*CELL INVX2A12TR
*C2_R1_C1 7.506e-03 5.667e-06 7.506e-03 
*LOADS
*RC U21:B0 2.127e-08
*RC U22:B0 2.127e-08
*END

*R_NET n18 1.483e-02
*DRIVER U32:Y
*CELL INVX2A12TR
*C2_R1_C1 7.417e-03 5.667e-06 7.417e-03 
*LOADS
*RC U27:B0 2.123e-08
*RC U29:A0 2.080e-08
*END
